15
Lattice="1.0 0.0 0.0 0.0 1.0 0.0 0.0 0.0 1.0" Properties=species:S:1:pos:R:3 pbc="F F F"
C      2.24544000       0.46267000      -1.43151000 
C      2.73487000       0.15449000      -0.02500000 
C      3.23686000      -1.25631000       0.08186000 
C      4.50586000      -1.66482000       0.23411000 
C      5.73596000      -0.81868000       0.29786000 
H      1.85752000       1.48529000      -1.48070000 
H      1.44119000      -0.21790000      -1.73066000 
H      3.05757000       0.37332000      -2.16011000 
H      1.90672000       0.28146000       0.68292000 
H      3.49651000       0.88422000       0.26336000 
H      2.46253000      -2.02406000       0.04348000 
H      4.68580000      -2.73680000       0.31036000 
H      5.54471000       0.24078000       0.11108000 
H      6.45491000      -1.16035000      -0.45338000 
H      6.20198000      -0.91443000       1.28349000 
