13
Lattice="1.0 0.0 0.0 0.0 1.0 0.0 0.0 0.0 1.0" Properties=species:S:1:pos:R:3 pbc="F F F"
C      1.59247000       0.78247000       0.62219000 
C      2.41560000      -0.09597000       0.03436000 
C      3.24140000       0.19884000      -1.18394000 
C      4.70706000       0.07069000      -0.88801000 
C      5.52749000      -0.80152000      -1.48883000 
H      1.01897000       0.50302000       1.50063000 
H      1.47215000       1.79325000       0.24479000 
H      2.49802000      -1.09934000       0.44812000 
H      3.04760000       1.21321000      -1.55193000 
H      2.94148000      -0.48940000      -1.98298000 
H      5.11434000       0.74656000      -0.13849000 
H      5.17121000      -1.49279000      -2.24621000 
H      6.58149000      -0.83950000      -1.23084000 
