9
Lattice="1.0 0.0 0.0 0.0 1.0 0.0 0.0 0.0 1.0" Properties=species:S:1:pos:R:3 pbc="F F F"
C      1.29129000       0.13368200       0.00000000 
C      0.00000000       0.47915900       0.00000000 
H      1.60116000      -0.90742000       0.00000000 
H      2.08080000       0.87733700       0.00000000 
H     -0.26322100       1.53609800       0.00000000 
C     -1.13975700      -0.49234100       0.00000000 
H     -0.77685900      -1.52329100       0.00000000 
H     -1.77554000      -0.35286100       0.88042000 
H     -1.77554000      -0.35286100      -0.88042000 
