11
Lattice="1.0 0.0 0.0 0.0 1.0 0.0 0.0 0.0 1.0" Properties=species:S:1:pos:R:3 pbc="F F F"
Si     -0.00201800      -0.02199200      -0.00122000 
H      0.01307600      -0.07486100       1.48255100 
H      1.40397700      -0.07083300      -0.47598800 
H     -0.70400500      -1.22937100      -0.50223800 
Si     -1.07178900       1.94017700      -0.75692000 
H     -1.09779700       1.92393600      -2.24260900 
H     -2.48181200       1.92207500      -0.28817400 
C     -0.21203200       3.50496900      -0.14659400 
H      0.82202600       3.54751000      -0.49791300 
H     -0.72948400       4.39593500      -0.51208200 
H     -0.19998300       3.54607600       0.94550400 
