11
Lattice="1.0 0.0 0.0 0.0 1.0 0.0 0.0 0.0 1.0" Properties=species:S:1:pos:R:3 pbc="F F F"
C      0.00000000       0.00000000       0.58771600 
C      0.00000000       1.26685700      -0.26018600 
C      0.00000000      -1.26685700      -0.26018600 
H     -0.87689800       0.00000000       1.24471300 
H      0.87689800       0.00000000       1.24471300 
H      0.00000000       2.16615000       0.36206600 
H      0.00000000      -2.16615000       0.36206600 
H      0.88361900       1.30423400      -0.90440500 
H     -0.88361900       1.30423400      -0.90440500 
H     -0.88361900      -1.30423400      -0.90440500 
H      0.88361900      -1.30423400      -0.90440500 
