17
Lattice="1.0 0.0 0.0 0.0 1.0 0.0 0.0 0.0 1.0" Properties=species:S:1:pos:R:3 pbc="F F F"
Si     -0.00073000      -0.00012700       0.00031300 
C      0.00080500      -0.00101400       1.88590500 
H      1.02164700       0.00173900       2.28148100 
H     -0.51127800       0.88058600       2.28491000 
C      0.88826100       1.53946000      -0.62820700 
H      1.92428200       1.57235500      -0.27557700 
H      0.39206700       2.45270300      -0.28421300 
H      0.90966500       1.56641600      -1.72243100 
H     -0.50608100      -0.88636600       2.28302700 
C     -1.77841100       0.00062200      -0.62869100 
H     -1.81282800      -0.00267200      -1.72299600 
H     -2.32453200      -0.88074200      -0.27727800 
H     -2.32127200       0.88627500      -0.28301800 
C      0.88886000      -1.53919100      -0.62892000 
H      0.90752700      -1.56807800      -1.72318000 
H      1.92582100      -1.56863300      -0.27909900 
H      0.39617100      -2.45331500      -0.28202900 
